Circuit: * Z:\home\kai\Nextcloud\Guitar\Mini Stereo Amp build\Draft1.asc

C3: Increased Cpar to 1e-010
C7: Increased Cpar to 1e-011
C6: Increased Cpar to 1e-009
Direct Newton iteration for .op point succeeded.
N-Period=all
Fourier components of V(output)
DC component:0.00185555

Harmonic	Frequency	 Fourier 	Normalized	 Phase  	Normalized
 Number 	  [Hz]   	Component	 Component	[degree]	Phase [deg]
    1   	1.000e+03	2.230e+00	1.000e+00	  -11.84°	    0.00°
    2   	2.000e+03	5.013e-02	2.248e-02	  -96.01°	  -84.17°
    3   	3.000e+03	1.964e-02	8.809e-03	  -26.47°	  -14.63°
    4   	4.000e+03	1.641e-02	7.359e-03	   91.36°	  103.21°
    5   	5.000e+03	4.357e-03	1.954e-03	  -69.38°	  -57.54°
    6   	6.000e+03	8.893e-04	3.988e-04	  -82.30°	  -70.46°
    7   	7.000e+03	4.713e-03	2.114e-03	  178.74°	  190.58°
    8   	8.000e+03	1.119e-03	5.018e-04	   35.35°	   47.19°
    9   	9.000e+03	1.471e-03	6.597e-04	   83.81°	   95.66°
   10   	1.000e+04	1.166e-03	5.228e-04	 -112.75°	 -100.91°
Total Harmonic Distortion: 2.542573%(2.557922%)



Date: Sun Feb 05 13:18:58 2023
Total elapsed time: 0.345 seconds.

tnom = 27
temp = 27
method = modified trap
totiter = 6607
traniter = 6593
tranpoints = 2188
accept = 1566
rejected = 622
matrix size = 22
fillins = 8
solver = Normal
Matrix Compiler1:     104 opcodes  3.3/[2.9]/6.6
Matrix Compiler2: off  [2.4]/7.1/10.9

